/*--------------------------------*- C++ -*----------------------------------*\
| =========                 |                                                 |
| \\      /  F ield         | OpenFOAM: The Open Source CFD Toolbox           |
|  \\    /   O peration     | Version:  v2412                                 |
|   \\  /    A nd           | Website:  www.openfoam.com                      |
|    \\/     M anipulation  |                                                 |
\*---------------------------------------------------------------------------*/
FoamFile
{
    version     2.0;
    format      ascii;
    class       dictionary;
    object      controlDict;
}
// * * * * * * * * * * * * * * * * * * * * * * * * * * * * * * * * * * * * * //

application     scalarTransportFoam;

startFrom       startTime;

startTime       0;

stopAt          endTime;

endTime         100;

deltaT          0.05;

writeControl    adjustableRunTime;

writeInterval   1;

purgeWrite      1;

writeFormat     ascii;

writePrecision  6;

writeCompression off;

timeFormat      general;

timePrecision   6;

runTimeModifiable true;

functions
{
    outletFlux
    {
        type            surfaceFieldValue;
        libs            (fieldFunctionObjects);

        writeControl    timeStep;
        writeInterval   1;

        writeFields     false;

        regionType      patch;
        name            outlet;

        operation       weightedAreaAverage;
        weightField     phi;
        fields          (T);
    }

    stopAtTracerBreakthrough
    {
        type            runTimeControl;
        libs            (utilityFunctionObjects);

        conditions
        {
            tracerAtOutlet
            {
                type            minMax;
                functionObject  outletFlux;
                fields          ("weightedAreaAverage(outlet,T)");
                value           0.99;
                mode            maximum;
            }
        }
    }

}

// ************************************************************************* //
