/*---------------------------------------------------------------------------*\
| =========                |                                                 |
| \      /  F ield         | OpenFOAM: The Open Source CFD Toolbox           |
|  \    /   O peration     | Script: makeBlockMesh.py                        |
|   \  /    A nd           | Time: 2026-05-18 14:36:03.208473                |
|    \/     M anipulation  |                                                 |
\*---------------------------------------------------------------------------*/
FoamFile
{
    version     2.0;
    format      ascii;
    class       dictionary;
    object      blockMeshDict;
}
// * * * * * * * * * * * * * * * * * * * * * * * * * * * * * * * * * * * * * //

vertices
(
	(0.00000000 0.00000000 0.00000000) // 0
	(0.01000000 0.00000000 0.00000000) // 1
	(0.01000000 0.00100000 0.00000000) // 2
	(0.00000000 0.00100000 0.00000000) // 3
	(0.00000000 0.00000000 0.00500000) // 4
	(0.01000000 0.00000000 0.00500000) // 5
	(0.01000000 0.00100000 0.00500000) // 6
	(0.00000000 0.00100000 0.00500000) // 7
);

blocks
(
	hex ( 0 1 2 3 4 5 6 7 )  ( 50 60 1 ) simpleGrading ( 1 ((1.0 30 10)(1.0 30 0.1)) 1 ) // 0 
);

edges
(
		spline 0 1 ((0.00020408 0.00000000 0.00000000) (0.00040816 0.00000000 0.00000000) (0.00061224 0.00000000 0.00000000) (0.00081633 0.00000000 0.00000000) (0.00102041 0.00000000 0.00000000) (0.00122449 0.00000000 0.00000000) (0.00142857 0.00000000 0.00000000) (0.00163265 0.00000000 0.00000000) (0.00183673 0.00000000 0.00000000) (0.00204082 0.00000000 0.00000000) (0.00224490 0.00000000 0.00000000) (0.00244898 0.00000000 0.00000000) (0.00265306 0.00000000 0.00000000) (0.00285714 0.00000000 0.00000000) (0.00306122 0.00000000 0.00000000) (0.00326531 0.00000000 0.00000000) (0.00346939 0.00000000 0.00000000) (0.00367347 0.00000000 0.00000000) (0.00387755 0.00000000 0.00000000) (0.00408163 0.00000000 0.00000000) (0.00428571 0.00000000 0.00000000) (0.00448980 0.00000000 0.00000000) (0.00469388 0.00000000 0.00000000) (0.00489796 0.00000000 0.00000000) (0.00510204 0.00000000 0.00000000) (0.00530612 0.00000000 0.00000000) (0.00551020 0.00000000 0.00000000) (0.00571429 0.00000000 0.00000000) (0.00591837 0.00000000 0.00000000) (0.00612245 0.00000000 0.00000000) (0.00632653 0.00000000 0.00000000) (0.00653061 0.00000000 0.00000000) (0.00673469 0.00000000 0.00000000) (0.00693878 0.00000000 0.00000000) (0.00714286 0.00000000 0.00000000) (0.00734694 0.00000000 0.00000000) (0.00755102 0.00000000 0.00000000) (0.00775510 0.00000000 0.00000000) (0.00795918 0.00000000 0.00000000) (0.00816327 0.00000000 0.00000000) (0.00836735 0.00000000 0.00000000) (0.00857143 0.00000000 0.00000000) (0.00877551 0.00000000 0.00000000) (0.00897959 0.00000000 0.00000000) (0.00918367 0.00000000 0.00000000) (0.00938776 0.00000000 0.00000000) (0.00959184 0.00000000 0.00000000))
		spline 2 3 ((0.00959184 0.00100000 0.00000000) (0.00938776 0.00100000 0.00000000) (0.00918367 0.00100000 0.00000000) (0.00897959 0.00100000 0.00000000) (0.00877551 0.00100000 0.00000000) (0.00857143 0.00100000 0.00000000) (0.00836735 0.00100000 0.00000000) (0.00816327 0.00100000 0.00000000) (0.00795918 0.00100000 0.00000000) (0.00775510 0.00100000 0.00000000) (0.00755102 0.00100000 0.00000000) (0.00734694 0.00100000 0.00000000) (0.00714286 0.00100000 0.00000000) (0.00693878 0.00100000 0.00000000) (0.00673469 0.00100000 0.00000000) (0.00653061 0.00100000 0.00000000) (0.00632653 0.00100000 0.00000000) (0.00612245 0.00100000 0.00000000) (0.00591837 0.00100000 0.00000000) (0.00571429 0.00100000 0.00000000) (0.00551020 0.00100000 0.00000000) (0.00530612 0.00100000 0.00000000) (0.00510204 0.00100000 0.00000000) (0.00489796 0.00100000 0.00000000) (0.00469388 0.00100000 0.00000000) (0.00448980 0.00100000 0.00000000) (0.00428571 0.00100000 0.00000000) (0.00408163 0.00100000 0.00000000) (0.00387755 0.00100000 0.00000000) (0.00367347 0.00100000 0.00000000) (0.00346939 0.00100000 0.00000000) (0.00326531 0.00100000 0.00000000) (0.00306122 0.00100000 0.00000000) (0.00285714 0.00100000 0.00000000) (0.00265306 0.00100000 0.00000000) (0.00244898 0.00100000 0.00000000) (0.00224490 0.00100000 0.00000000) (0.00204082 0.00100000 0.00000000) (0.00183673 0.00100000 0.00000000) (0.00163265 0.00100000 0.00000000) (0.00142857 0.00100000 0.00000000) (0.00122449 0.00100000 0.00000000) (0.00102041 0.00100000 0.00000000) (0.00081633 0.00100000 0.00000000) (0.00061224 0.00100000 0.00000000) (0.00040816 0.00100000 0.00000000) (0.00020408 0.00100000 0.00000000))
		spline 4 5 ((0.00020408 0.00000000 0.00500000) (0.00040816 0.00000000 0.00500000) (0.00061224 0.00000000 0.00500000) (0.00081633 0.00000000 0.00500000) (0.00102041 0.00000000 0.00500000) (0.00122449 0.00000000 0.00500000) (0.00142857 0.00000000 0.00500000) (0.00163265 0.00000000 0.00500000) (0.00183673 0.00000000 0.00500000) (0.00204082 0.00000000 0.00500000) (0.00224490 0.00000000 0.00500000) (0.00244898 0.00000000 0.00500000) (0.00265306 0.00000000 0.00500000) (0.00285714 0.00000000 0.00500000) (0.00306122 0.00000000 0.00500000) (0.00326531 0.00000000 0.00500000) (0.00346939 0.00000000 0.00500000) (0.00367347 0.00000000 0.00500000) (0.00387755 0.00000000 0.00500000) (0.00408163 0.00000000 0.00500000) (0.00428571 0.00000000 0.00500000) (0.00448980 0.00000000 0.00500000) (0.00469388 0.00000000 0.00500000) (0.00489796 0.00000000 0.00500000) (0.00510204 0.00000000 0.00500000) (0.00530612 0.00000000 0.00500000) (0.00551020 0.00000000 0.00500000) (0.00571429 0.00000000 0.00500000) (0.00591837 0.00000000 0.00500000) (0.00612245 0.00000000 0.00500000) (0.00632653 0.00000000 0.00500000) (0.00653061 0.00000000 0.00500000) (0.00673469 0.00000000 0.00500000) (0.00693878 0.00000000 0.00500000) (0.00714286 0.00000000 0.00500000) (0.00734694 0.00000000 0.00500000) (0.00755102 0.00000000 0.00500000) (0.00775510 0.00000000 0.00500000) (0.00795918 0.00000000 0.00500000) (0.00816327 0.00000000 0.00500000) (0.00836735 0.00000000 0.00500000) (0.00857143 0.00000000 0.00500000) (0.00877551 0.00000000 0.00500000) (0.00897959 0.00000000 0.00500000) (0.00918367 0.00000000 0.00500000) (0.00938776 0.00000000 0.00500000) (0.00959184 0.00000000 0.00500000))
		spline 6 7 ((0.00959184 0.00100000 0.00500000) (0.00938776 0.00100000 0.00500000) (0.00918367 0.00100000 0.00500000) (0.00897959 0.00100000 0.00500000) (0.00877551 0.00100000 0.00500000) (0.00857143 0.00100000 0.00500000) (0.00836735 0.00100000 0.00500000) (0.00816327 0.00100000 0.00500000) (0.00795918 0.00100000 0.00500000) (0.00775510 0.00100000 0.00500000) (0.00755102 0.00100000 0.00500000) (0.00734694 0.00100000 0.00500000) (0.00714286 0.00100000 0.00500000) (0.00693878 0.00100000 0.00500000) (0.00673469 0.00100000 0.00500000) (0.00653061 0.00100000 0.00500000) (0.00632653 0.00100000 0.00500000) (0.00612245 0.00100000 0.00500000) (0.00591837 0.00100000 0.00500000) (0.00571429 0.00100000 0.00500000) (0.00551020 0.00100000 0.00500000) (0.00530612 0.00100000 0.00500000) (0.00510204 0.00100000 0.00500000) (0.00489796 0.00100000 0.00500000) (0.00469388 0.00100000 0.00500000) (0.00448980 0.00100000 0.00500000) (0.00428571 0.00100000 0.00500000) (0.00408163 0.00100000 0.00500000) (0.00387755 0.00100000 0.00500000) (0.00367347 0.00100000 0.00500000) (0.00346939 0.00100000 0.00500000) (0.00326531 0.00100000 0.00500000) (0.00306122 0.00100000 0.00500000) (0.00285714 0.00100000 0.00500000) (0.00265306 0.00100000 0.00500000) (0.00244898 0.00100000 0.00500000) (0.00224490 0.00100000 0.00500000) (0.00204082 0.00100000 0.00500000) (0.00183673 0.00100000 0.00500000) (0.00163265 0.00100000 0.00500000) (0.00142857 0.00100000 0.00500000) (0.00122449 0.00100000 0.00500000) (0.00102041 0.00100000 0.00500000) (0.00081633 0.00100000 0.00500000) (0.00061224 0.00100000 0.00500000) (0.00040816 0.00100000 0.00500000) (0.00020408 0.00100000 0.00500000))
);

boundary
(
	frontAndBack
	{
		type empty;
		faces
		(
			(4 5 6 7)
			(0 1 2 3)
		);
	}

	lowerWall
	{
		type wall;
		faces
		(
			(4 5 1 0)
		);
	}

	outlet
	{
		type patch;
		faces
		(
			(5 1 2 6)
		);
	}

	upperWall
	{
		type wall;
		faces
		(
			(7 6 2 3)
		);
	}

	inlet
	{
		type patch;
		faces
		(
			(4 0 3 7)
		);
	}

);

faces
(
);

mergePatchPairs
(
);

scale 1;

// * * * * * * * * * * * * * * * * * * * * * * * * * * * * * * * * * * * * * //
// Created with classy_blocks: https://github.com/damogranlabs/classy_blocks //
// * * * * * * * * * * * * * * * * * * * * * * * * * * * * * * * * * * * * * //
