/*---------------------------------------------------------------------------*\
| =========                |                                                 |
| \      /  F ield         | OpenFOAM: The Open Source CFD Toolbox           |
|  \    /   O peration     | Script: ./makeBlockMesh                         |
|   \  /    A nd           | Time: 2026-05-08 17:06:00.332009                |
|    \/     M anipulation  |                                                 |
\*---------------------------------------------------------------------------*/
FoamFile
{
    version     2.0;
    format      ascii;
    class       dictionary;
    object      blockMeshDict;
}
// * * * * * * * * * * * * * * * * * * * * * * * * * * * * * * * * * * * * * //

vertices
(
	(0.00000000 0.10000000 0.00000000) // 0
	(1.00000000 0.10000000 0.00000000) // 1
	(1.00000000 0.00000000 0.00000000) // 2
	(0.00000000 0.00000000 0.00000000) // 3
	(0.00000000 0.10000000 0.10000000) // 4
	(1.00000000 0.10000000 0.10000000) // 5
	(1.00000000 0.00000000 0.10000000) // 6
	(0.00000000 0.00000000 0.10000000) // 7
);

blocks
(
	hex ( 0 1 2 3 4 5 6 7 )  ( 100 10 10 ) simpleGrading ( 1 1 1 ) // 0 
);

edges
(
		spline 0 1 ((0.02564103 0.11201485 0.00000000) (0.05128205 0.11921036 0.00000000) (0.07692308 0.11870032 0.00000000) (0.10256410 0.11068932 0.00000000) (0.12820513 0.09839067 0.00000000) (0.15384615 0.08673755 0.00000000) (0.17948718 0.08040419 0.00000000) (0.20512821 0.08193099 0.00000000) (0.23076923 0.09070554 0.00000000) (0.25641026 0.10320823 0.00000000) (0.28205128 0.11442405 0.00000000) (0.30769231 0.11985418 0.00000000) (0.33333333 0.11732051 0.00000000) (0.35897436 0.10783933 0.00000000) (0.38461538 0.09521369 0.00000000) (0.41025641 0.08450790 0.00000000) (0.43589744 0.08001622 0.00000000) (0.46153846 0.08354032 0.00000000) (0.48717949 0.09366664 0.00000000) (0.51282051 0.10633336 0.00000000) (0.53846154 0.11645968 0.00000000) (0.56410256 0.11998378 0.00000000) (0.58974359 0.11549210 0.00000000) (0.61538462 0.10478631 0.00000000) (0.64102564 0.09216067 0.00000000) (0.66666667 0.08267949 0.00000000) (0.69230769 0.08014582 0.00000000) (0.71794872 0.08557595 0.00000000) (0.74358974 0.09679177 0.00000000) (0.76923077 0.10929446 0.00000000) (0.79487179 0.11806901 0.00000000) (0.82051282 0.11959581 0.00000000) (0.84615385 0.11326245 0.00000000) (0.87179487 0.10160933 0.00000000) (0.89743590 0.08931068 0.00000000) (0.92307692 0.08129968 0.00000000) (0.94871795 0.08078964 0.00000000) (0.97435897 0.08798515 0.00000000))
		spline 2 3 ((0.97435897 -0.01201485 0.00000000) (0.94871795 -0.01921036 0.00000000) (0.92307692 -0.01870032 0.00000000) (0.89743590 -0.01068932 0.00000000) (0.87179487 0.00160933 0.00000000) (0.84615385 0.01326245 0.00000000) (0.82051282 0.01959581 0.00000000) (0.79487179 0.01806901 0.00000000) (0.76923077 0.00929446 0.00000000) (0.74358974 -0.00320823 0.00000000) (0.71794872 -0.01442405 0.00000000) (0.69230769 -0.01985418 0.00000000) (0.66666667 -0.01732051 0.00000000) (0.64102564 -0.00783933 0.00000000) (0.61538462 0.00478631 0.00000000) (0.58974359 0.01549210 0.00000000) (0.56410256 0.01998378 0.00000000) (0.53846154 0.01645968 0.00000000) (0.51282051 0.00633336 0.00000000) (0.48717949 -0.00633336 0.00000000) (0.46153846 -0.01645968 0.00000000) (0.43589744 -0.01998378 0.00000000) (0.41025641 -0.01549210 0.00000000) (0.38461538 -0.00478631 0.00000000) (0.35897436 0.00783933 0.00000000) (0.33333333 0.01732051 0.00000000) (0.30769231 0.01985418 0.00000000) (0.28205128 0.01442405 0.00000000) (0.25641026 0.00320823 0.00000000) (0.23076923 -0.00929446 0.00000000) (0.20512821 -0.01806901 0.00000000) (0.17948718 -0.01959581 0.00000000) (0.15384615 -0.01326245 0.00000000) (0.12820513 -0.00160933 0.00000000) (0.10256410 0.01068932 0.00000000) (0.07692308 0.01870032 0.00000000) (0.05128205 0.01921036 0.00000000) (0.02564103 0.01201485 0.00000000))
		spline 4 5 ((0.02564103 0.11201485 0.10000000) (0.05128205 0.11921036 0.10000000) (0.07692308 0.11870032 0.10000000) (0.10256410 0.11068932 0.10000000) (0.12820513 0.09839067 0.10000000) (0.15384615 0.08673755 0.10000000) (0.17948718 0.08040419 0.10000000) (0.20512821 0.08193099 0.10000000) (0.23076923 0.09070554 0.10000000) (0.25641026 0.10320823 0.10000000) (0.28205128 0.11442405 0.10000000) (0.30769231 0.11985418 0.10000000) (0.33333333 0.11732051 0.10000000) (0.35897436 0.10783933 0.10000000) (0.38461538 0.09521369 0.10000000) (0.41025641 0.08450790 0.10000000) (0.43589744 0.08001622 0.10000000) (0.46153846 0.08354032 0.10000000) (0.48717949 0.09366664 0.10000000) (0.51282051 0.10633336 0.10000000) (0.53846154 0.11645968 0.10000000) (0.56410256 0.11998378 0.10000000) (0.58974359 0.11549210 0.10000000) (0.61538462 0.10478631 0.10000000) (0.64102564 0.09216067 0.10000000) (0.66666667 0.08267949 0.10000000) (0.69230769 0.08014582 0.10000000) (0.71794872 0.08557595 0.10000000) (0.74358974 0.09679177 0.10000000) (0.76923077 0.10929446 0.10000000) (0.79487179 0.11806901 0.10000000) (0.82051282 0.11959581 0.10000000) (0.84615385 0.11326245 0.10000000) (0.87179487 0.10160933 0.10000000) (0.89743590 0.08931068 0.10000000) (0.92307692 0.08129968 0.10000000) (0.94871795 0.08078964 0.10000000) (0.97435897 0.08798515 0.10000000))
		spline 6 7 ((0.97435897 -0.01201485 0.10000000) (0.94871795 -0.01921036 0.10000000) (0.92307692 -0.01870032 0.10000000) (0.89743590 -0.01068932 0.10000000) (0.87179487 0.00160933 0.10000000) (0.84615385 0.01326245 0.10000000) (0.82051282 0.01959581 0.10000000) (0.79487179 0.01806901 0.10000000) (0.76923077 0.00929446 0.10000000) (0.74358974 -0.00320823 0.10000000) (0.71794872 -0.01442405 0.10000000) (0.69230769 -0.01985418 0.10000000) (0.66666667 -0.01732051 0.10000000) (0.64102564 -0.00783933 0.10000000) (0.61538462 0.00478631 0.10000000) (0.58974359 0.01549210 0.10000000) (0.56410256 0.01998378 0.10000000) (0.53846154 0.01645968 0.10000000) (0.51282051 0.00633336 0.10000000) (0.48717949 -0.00633336 0.10000000) (0.46153846 -0.01645968 0.10000000) (0.43589744 -0.01998378 0.10000000) (0.41025641 -0.01549210 0.10000000) (0.38461538 -0.00478631 0.10000000) (0.35897436 0.00783933 0.10000000) (0.33333333 0.01732051 0.10000000) (0.30769231 0.01985418 0.10000000) (0.28205128 0.01442405 0.10000000) (0.25641026 0.00320823 0.10000000) (0.23076923 -0.00929446 0.10000000) (0.20512821 -0.01806901 0.10000000) (0.17948718 -0.01959581 0.10000000) (0.15384615 -0.01326245 0.10000000) (0.12820513 -0.00160933 0.10000000) (0.10256410 0.01068932 0.10000000) (0.07692308 0.01870032 0.10000000) (0.05128205 0.01921036 0.10000000) (0.02564103 0.01201485 0.10000000))
);

boundary
(
	lowerWall
	{
		type wall;
		faces
		(
			(0 1 2 3)
		);
	}

	upperWall
	{
		type wall;
		faces
		(
			(4 5 6 7)
		);
	}

	frontAndBack
	{
		type empty;
		faces
		(
			(4 5 1 0)
			(7 6 2 3)
		);
	}

	outlet
	{
		type patch;
		faces
		(
			(5 1 2 6)
		);
	}

	inlet
	{
		type patch;
		faces
		(
			(4 0 3 7)
		);
	}

);

faces
(
);

mergePatchPairs
(
);

scale 1;

// * * * * * * * * * * * * * * * * * * * * * * * * * * * * * * * * * * * * * //
// Created with classy_blocks: https://github.com/damogranlabs/classy_blocks //
// * * * * * * * * * * * * * * * * * * * * * * * * * * * * * * * * * * * * * //
