/*---------------------------------------------------------------------------*\
| =========                |                                                 |
| \      /  F ield         | OpenFOAM: The Open Source CFD Toolbox           |
|  \    /   O peration     | Script: makeFractureSTL.py                      |
|   \  /    A nd           | Time: 2026-06-02 15:11:40.793429                |
|    \/     M anipulation  |                                                 |
\*---------------------------------------------------------------------------*/
FoamFile
{
    version     2.0;
    format      ascii;
    class       dictionary;
    object      blockMeshDict;
}
// * * * * * * * * * * * * * * * * * * * * * * * * * * * * * * * * * * * * * //

vertices
(
	(0.00000000 0.00000000 -0.00113905) // 0
	(0.01000000 0.00000000 -0.00113905) // 1
	(0.01000000 0.00500000 -0.00113905) // 2
	(0.00000000 0.00500000 -0.00113905) // 3
	(0.00000000 0.00000000 0.00111403) // 4
	(0.01000000 0.00000000 0.00111403) // 5
	(0.01000000 0.00500000 0.00111403) // 6
	(0.00000000 0.00500000 0.00111403) // 7
);

blocks
(
	hex ( 0 1 2 3 4 5 6 7 )  ( 20 10 4 ) simpleGrading ( 1 1 1 ) // 0 
);

edges
(
);

boundary
(
);

faces
(
);

mergePatchPairs
(
);

scale 1;

// * * * * * * * * * * * * * * * * * * * * * * * * * * * * * * * * * * * * * //
// Created with classy_blocks: https://github.com/damogranlabs/classy_blocks //
// * * * * * * * * * * * * * * * * * * * * * * * * * * * * * * * * * * * * * //
