/*---------------------------------------------------------------------------*\
| =========                |                                                 |
| \      /  F ield         | OpenFOAM: The Open Source CFD Toolbox           |
|  \    /   O peration     | Script: ./makeBlockMesh                         |
|   \  /    A nd           | Time: 2026-05-11 10:40:48.413047                |
|    \/     M anipulation  |                                                 |
\*---------------------------------------------------------------------------*/
FoamFile
{
    version     2.0;
    format      ascii;
    class       dictionary;
    object      blockMeshDict;
}
// * * * * * * * * * * * * * * * * * * * * * * * * * * * * * * * * * * * * * //

vertices
(
	(0.00000000 0.00000000 0.00000000) // 0
	(1.00000000 0.00000000 0.00000000) // 1
	(1.00000000 0.10000000 0.00000000) // 2
	(0.00000000 0.10000000 0.00000000) // 3
	(0.00000000 0.00000000 0.10000000) // 4
	(1.00000000 0.00000000 0.10000000) // 5
	(1.00000000 0.10000000 0.10000000) // 6
	(0.00000000 0.10000000 0.10000000) // 7
);

blocks
(
	hex ( 0 1 2 3 4 5 6 7 )  ( 100 12 10 ) simpleGrading ( 1 ((0.25 4 1)(0.5 4 1)(0.25 4 1)) 1 ) // 0 
);

edges
(
		spline 0 1 ((0.01010101 -0.00592908 0.00000000) (0.02020202 -0.00954902 0.00000000) (0.03030303 -0.00945001 0.00000000) (0.04040404 -0.00567060 0.00000000) (0.05050505 0.00031728 0.00000000) (0.06060606 0.00618159 0.00000000) (0.07070707 0.00963842 0.00000000) (0.08080808 0.00934148 0.00000000) (0.09090909 0.00540641 0.00000000) (0.10101010 -0.00063424 0.00000000) (0.11111111 -0.00642788 0.00000000) (0.12121212 -0.00971812 0.00000000) (0.13131313 -0.00922354 0.00000000) (0.14141414 -0.00513677 0.00000000) (0.15151515 0.00095056 0.00000000) (0.16161616 0.00666769 0.00000000) (0.17171717 0.00978802 0.00000000) (0.18181818 0.00909632 0.00000000) (0.19191919 0.00486197 0.00000000) (0.20202020 -0.00126592 0.00000000) (0.21212121 -0.00690079 0.00000000) (0.22222222 -0.00984808 0.00000000) (0.23232323 -0.00895994 0.00000000) (0.24242424 -0.00458227 0.00000000) (0.25252525 0.00158001 0.00000000) (0.26262626 0.00712694 0.00000000) (0.27272727 0.00989821 0.00000000) (0.28282828 0.00881453 0.00000000) (0.29292929 0.00429795 0.00000000) (0.30303030 -0.00189251 0.00000000) (0.31313131 -0.00734592 0.00000000) (0.32323232 -0.00993838 0.00000000) (0.33333333 -0.00866025 0.00000000) (0.34343434 -0.00400931 0.00000000) (0.35353535 0.00220311 0.00000000) (0.36363636 0.00755750 0.00000000) (0.37373737 0.00996855 0.00000000) (0.38383838 0.00849725 0.00000000) (0.39393939 0.00371662 0.00000000) (0.40404040 -0.00251148 0.00000000) (0.41414141 -0.00776146 0.00000000) (0.42424242 -0.00998867 0.00000000) (0.43434343 -0.00832570 0.00000000) (0.44444444 -0.00342020 0.00000000) (0.45454545 0.00281733 0.00000000) (0.46464646 0.00795762 0.00000000) (0.47474747 0.00999874 0.00000000) (0.48484848 0.00814576 0.00000000) (0.49494949 0.00312033 0.00000000) (0.50505051 -0.00312033 0.00000000) (0.51515152 -0.00814576 0.00000000) (0.52525253 -0.00999874 0.00000000) (0.53535354 -0.00795762 0.00000000) (0.54545455 -0.00281733 0.00000000) (0.55555556 0.00342020 0.00000000) (0.56565657 0.00832570 0.00000000) (0.57575758 0.00998867 0.00000000) (0.58585859 0.00776146 0.00000000) (0.59595960 0.00251148 0.00000000) (0.60606061 -0.00371662 0.00000000) (0.61616162 -0.00849725 0.00000000) (0.62626263 -0.00996855 0.00000000) (0.63636364 -0.00755750 0.00000000) (0.64646465 -0.00220311 0.00000000) (0.65656566 0.00400931 0.00000000) (0.66666667 0.00866025 0.00000000) (0.67676768 0.00993838 0.00000000) (0.68686869 0.00734592 0.00000000) (0.69696970 0.00189251 0.00000000) (0.70707071 -0.00429795 0.00000000) (0.71717172 -0.00881453 0.00000000) (0.72727273 -0.00989821 0.00000000) (0.73737374 -0.00712694 0.00000000) (0.74747475 -0.00158001 0.00000000) (0.75757576 0.00458227 0.00000000) (0.76767677 0.00895994 0.00000000) (0.77777778 0.00984808 0.00000000) (0.78787879 0.00690079 0.00000000) (0.79797980 0.00126592 0.00000000) (0.80808081 -0.00486197 0.00000000) (0.81818182 -0.00909632 0.00000000) (0.82828283 -0.00978802 0.00000000) (0.83838384 -0.00666769 0.00000000) (0.84848485 -0.00095056 0.00000000) (0.85858586 0.00513677 0.00000000) (0.86868687 0.00922354 0.00000000) (0.87878788 0.00971812 0.00000000) (0.88888889 0.00642788 0.00000000) (0.89898990 0.00063424 0.00000000) (0.90909091 -0.00540641 0.00000000) (0.91919192 -0.00934148 0.00000000) (0.92929293 -0.00963842 0.00000000) (0.93939394 -0.00618159 0.00000000) (0.94949495 -0.00031728 0.00000000) (0.95959596 0.00567060 0.00000000) (0.96969697 0.00945001 0.00000000) (0.97979798 0.00954902 0.00000000))
		spline 2 3 ((0.97979798 0.09045098 0.00000000) (0.96969697 0.09054999 0.00000000) (0.95959596 0.09432940 0.00000000) (0.94949495 0.10031728 0.00000000) (0.93939394 0.10618159 0.00000000) (0.92929293 0.10963842 0.00000000) (0.91919192 0.10934148 0.00000000) (0.90909091 0.10540641 0.00000000) (0.89898990 0.09936576 0.00000000) (0.88888889 0.09357212 0.00000000) (0.87878788 0.09028188 0.00000000) (0.86868687 0.09077646 0.00000000) (0.85858586 0.09486323 0.00000000) (0.84848485 0.10095056 0.00000000) (0.83838384 0.10666769 0.00000000) (0.82828283 0.10978802 0.00000000) (0.81818182 0.10909632 0.00000000) (0.80808081 0.10486197 0.00000000) (0.79797980 0.09873408 0.00000000) (0.78787879 0.09309921 0.00000000) (0.77777778 0.09015192 0.00000000) (0.76767677 0.09104006 0.00000000) (0.75757576 0.09541773 0.00000000) (0.74747475 0.10158001 0.00000000) (0.73737374 0.10712694 0.00000000) (0.72727273 0.10989821 0.00000000) (0.71717172 0.10881453 0.00000000) (0.70707071 0.10429795 0.00000000) (0.69696970 0.09810749 0.00000000) (0.68686869 0.09265408 0.00000000) (0.67676768 0.09006162 0.00000000) (0.66666667 0.09133975 0.00000000) (0.65656566 0.09599069 0.00000000) (0.64646465 0.10220311 0.00000000) (0.63636364 0.10755750 0.00000000) (0.62626263 0.10996855 0.00000000) (0.61616162 0.10849725 0.00000000) (0.60606061 0.10371662 0.00000000) (0.59595960 0.09748852 0.00000000) (0.58585859 0.09223854 0.00000000) (0.57575758 0.09001133 0.00000000) (0.56565657 0.09167430 0.00000000) (0.55555556 0.09657980 0.00000000) (0.54545455 0.10281733 0.00000000) (0.53535354 0.10795762 0.00000000) (0.52525253 0.10999874 0.00000000) (0.51515152 0.10814576 0.00000000) (0.50505051 0.10312033 0.00000000) (0.49494949 0.09687967 0.00000000) (0.48484848 0.09185424 0.00000000) (0.47474747 0.09000126 0.00000000) (0.46464646 0.09204238 0.00000000) (0.45454545 0.09718267 0.00000000) (0.44444444 0.10342020 0.00000000) (0.43434343 0.10832570 0.00000000) (0.42424242 0.10998867 0.00000000) (0.41414141 0.10776146 0.00000000) (0.40404040 0.10251148 0.00000000) (0.39393939 0.09628338 0.00000000) (0.38383838 0.09150275 0.00000000) (0.37373737 0.09003145 0.00000000) (0.36363636 0.09244250 0.00000000) (0.35353535 0.09779689 0.00000000) (0.34343434 0.10400931 0.00000000) (0.33333333 0.10866025 0.00000000) (0.32323232 0.10993838 0.00000000) (0.31313131 0.10734592 0.00000000) (0.30303030 0.10189251 0.00000000) (0.29292929 0.09570205 0.00000000) (0.28282828 0.09118547 0.00000000) (0.27272727 0.09010179 0.00000000) (0.26262626 0.09287306 0.00000000) (0.25252525 0.09841999 0.00000000) (0.24242424 0.10458227 0.00000000) (0.23232323 0.10895994 0.00000000) (0.22222222 0.10984808 0.00000000) (0.21212121 0.10690079 0.00000000) (0.20202020 0.10126592 0.00000000) (0.19191919 0.09513803 0.00000000) (0.18181818 0.09090368 0.00000000) (0.17171717 0.09021198 0.00000000) (0.16161616 0.09333231 0.00000000) (0.15151515 0.09904944 0.00000000) (0.14141414 0.10513677 0.00000000) (0.13131313 0.10922354 0.00000000) (0.12121212 0.10971812 0.00000000) (0.11111111 0.10642788 0.00000000) (0.10101010 0.10063424 0.00000000) (0.09090909 0.09459359 0.00000000) (0.08080808 0.09065852 0.00000000) (0.07070707 0.09036158 0.00000000) (0.06060606 0.09381841 0.00000000) (0.05050505 0.09968272 0.00000000) (0.04040404 0.10567060 0.00000000) (0.03030303 0.10945001 0.00000000) (0.02020202 0.10954902 0.00000000) (0.01010101 0.10592908 0.00000000))
		spline 4 5 ((0.01010101 -0.00592908 0.10000000) (0.02020202 -0.00954902 0.10000000) (0.03030303 -0.00945001 0.10000000) (0.04040404 -0.00567060 0.10000000) (0.05050505 0.00031728 0.10000000) (0.06060606 0.00618159 0.10000000) (0.07070707 0.00963842 0.10000000) (0.08080808 0.00934148 0.10000000) (0.09090909 0.00540641 0.10000000) (0.10101010 -0.00063424 0.10000000) (0.11111111 -0.00642788 0.10000000) (0.12121212 -0.00971812 0.10000000) (0.13131313 -0.00922354 0.10000000) (0.14141414 -0.00513677 0.10000000) (0.15151515 0.00095056 0.10000000) (0.16161616 0.00666769 0.10000000) (0.17171717 0.00978802 0.10000000) (0.18181818 0.00909632 0.10000000) (0.19191919 0.00486197 0.10000000) (0.20202020 -0.00126592 0.10000000) (0.21212121 -0.00690079 0.10000000) (0.22222222 -0.00984808 0.10000000) (0.23232323 -0.00895994 0.10000000) (0.24242424 -0.00458227 0.10000000) (0.25252525 0.00158001 0.10000000) (0.26262626 0.00712694 0.10000000) (0.27272727 0.00989821 0.10000000) (0.28282828 0.00881453 0.10000000) (0.29292929 0.00429795 0.10000000) (0.30303030 -0.00189251 0.10000000) (0.31313131 -0.00734592 0.10000000) (0.32323232 -0.00993838 0.10000000) (0.33333333 -0.00866025 0.10000000) (0.34343434 -0.00400931 0.10000000) (0.35353535 0.00220311 0.10000000) (0.36363636 0.00755750 0.10000000) (0.37373737 0.00996855 0.10000000) (0.38383838 0.00849725 0.10000000) (0.39393939 0.00371662 0.10000000) (0.40404040 -0.00251148 0.10000000) (0.41414141 -0.00776146 0.10000000) (0.42424242 -0.00998867 0.10000000) (0.43434343 -0.00832570 0.10000000) (0.44444444 -0.00342020 0.10000000) (0.45454545 0.00281733 0.10000000) (0.46464646 0.00795762 0.10000000) (0.47474747 0.00999874 0.10000000) (0.48484848 0.00814576 0.10000000) (0.49494949 0.00312033 0.10000000) (0.50505051 -0.00312033 0.10000000) (0.51515152 -0.00814576 0.10000000) (0.52525253 -0.00999874 0.10000000) (0.53535354 -0.00795762 0.10000000) (0.54545455 -0.00281733 0.10000000) (0.55555556 0.00342020 0.10000000) (0.56565657 0.00832570 0.10000000) (0.57575758 0.00998867 0.10000000) (0.58585859 0.00776146 0.10000000) (0.59595960 0.00251148 0.10000000) (0.60606061 -0.00371662 0.10000000) (0.61616162 -0.00849725 0.10000000) (0.62626263 -0.00996855 0.10000000) (0.63636364 -0.00755750 0.10000000) (0.64646465 -0.00220311 0.10000000) (0.65656566 0.00400931 0.10000000) (0.66666667 0.00866025 0.10000000) (0.67676768 0.00993838 0.10000000) (0.68686869 0.00734592 0.10000000) (0.69696970 0.00189251 0.10000000) (0.70707071 -0.00429795 0.10000000) (0.71717172 -0.00881453 0.10000000) (0.72727273 -0.00989821 0.10000000) (0.73737374 -0.00712694 0.10000000) (0.74747475 -0.00158001 0.10000000) (0.75757576 0.00458227 0.10000000) (0.76767677 0.00895994 0.10000000) (0.77777778 0.00984808 0.10000000) (0.78787879 0.00690079 0.10000000) (0.79797980 0.00126592 0.10000000) (0.80808081 -0.00486197 0.10000000) (0.81818182 -0.00909632 0.10000000) (0.82828283 -0.00978802 0.10000000) (0.83838384 -0.00666769 0.10000000) (0.84848485 -0.00095056 0.10000000) (0.85858586 0.00513677 0.10000000) (0.86868687 0.00922354 0.10000000) (0.87878788 0.00971812 0.10000000) (0.88888889 0.00642788 0.10000000) (0.89898990 0.00063424 0.10000000) (0.90909091 -0.00540641 0.10000000) (0.91919192 -0.00934148 0.10000000) (0.92929293 -0.00963842 0.10000000) (0.93939394 -0.00618159 0.10000000) (0.94949495 -0.00031728 0.10000000) (0.95959596 0.00567060 0.10000000) (0.96969697 0.00945001 0.10000000) (0.97979798 0.00954902 0.10000000))
		spline 6 7 ((0.97979798 0.09045098 0.10000000) (0.96969697 0.09054999 0.10000000) (0.95959596 0.09432940 0.10000000) (0.94949495 0.10031728 0.10000000) (0.93939394 0.10618159 0.10000000) (0.92929293 0.10963842 0.10000000) (0.91919192 0.10934148 0.10000000) (0.90909091 0.10540641 0.10000000) (0.89898990 0.09936576 0.10000000) (0.88888889 0.09357212 0.10000000) (0.87878788 0.09028188 0.10000000) (0.86868687 0.09077646 0.10000000) (0.85858586 0.09486323 0.10000000) (0.84848485 0.10095056 0.10000000) (0.83838384 0.10666769 0.10000000) (0.82828283 0.10978802 0.10000000) (0.81818182 0.10909632 0.10000000) (0.80808081 0.10486197 0.10000000) (0.79797980 0.09873408 0.10000000) (0.78787879 0.09309921 0.10000000) (0.77777778 0.09015192 0.10000000) (0.76767677 0.09104006 0.10000000) (0.75757576 0.09541773 0.10000000) (0.74747475 0.10158001 0.10000000) (0.73737374 0.10712694 0.10000000) (0.72727273 0.10989821 0.10000000) (0.71717172 0.10881453 0.10000000) (0.70707071 0.10429795 0.10000000) (0.69696970 0.09810749 0.10000000) (0.68686869 0.09265408 0.10000000) (0.67676768 0.09006162 0.10000000) (0.66666667 0.09133975 0.10000000) (0.65656566 0.09599069 0.10000000) (0.64646465 0.10220311 0.10000000) (0.63636364 0.10755750 0.10000000) (0.62626263 0.10996855 0.10000000) (0.61616162 0.10849725 0.10000000) (0.60606061 0.10371662 0.10000000) (0.59595960 0.09748852 0.10000000) (0.58585859 0.09223854 0.10000000) (0.57575758 0.09001133 0.10000000) (0.56565657 0.09167430 0.10000000) (0.55555556 0.09657980 0.10000000) (0.54545455 0.10281733 0.10000000) (0.53535354 0.10795762 0.10000000) (0.52525253 0.10999874 0.10000000) (0.51515152 0.10814576 0.10000000) (0.50505051 0.10312033 0.10000000) (0.49494949 0.09687967 0.10000000) (0.48484848 0.09185424 0.10000000) (0.47474747 0.09000126 0.10000000) (0.46464646 0.09204238 0.10000000) (0.45454545 0.09718267 0.10000000) (0.44444444 0.10342020 0.10000000) (0.43434343 0.10832570 0.10000000) (0.42424242 0.10998867 0.10000000) (0.41414141 0.10776146 0.10000000) (0.40404040 0.10251148 0.10000000) (0.39393939 0.09628338 0.10000000) (0.38383838 0.09150275 0.10000000) (0.37373737 0.09003145 0.10000000) (0.36363636 0.09244250 0.10000000) (0.35353535 0.09779689 0.10000000) (0.34343434 0.10400931 0.10000000) (0.33333333 0.10866025 0.10000000) (0.32323232 0.10993838 0.10000000) (0.31313131 0.10734592 0.10000000) (0.30303030 0.10189251 0.10000000) (0.29292929 0.09570205 0.10000000) (0.28282828 0.09118547 0.10000000) (0.27272727 0.09010179 0.10000000) (0.26262626 0.09287306 0.10000000) (0.25252525 0.09841999 0.10000000) (0.24242424 0.10458227 0.10000000) (0.23232323 0.10895994 0.10000000) (0.22222222 0.10984808 0.10000000) (0.21212121 0.10690079 0.10000000) (0.20202020 0.10126592 0.10000000) (0.19191919 0.09513803 0.10000000) (0.18181818 0.09090368 0.10000000) (0.17171717 0.09021198 0.10000000) (0.16161616 0.09333231 0.10000000) (0.15151515 0.09904944 0.10000000) (0.14141414 0.10513677 0.10000000) (0.13131313 0.10922354 0.10000000) (0.12121212 0.10971812 0.10000000) (0.11111111 0.10642788 0.10000000) (0.10101010 0.10063424 0.10000000) (0.09090909 0.09459359 0.10000000) (0.08080808 0.09065852 0.10000000) (0.07070707 0.09036158 0.10000000) (0.06060606 0.09381841 0.10000000) (0.05050505 0.09968272 0.10000000) (0.04040404 0.10567060 0.10000000) (0.03030303 0.10945001 0.10000000) (0.02020202 0.10954902 0.10000000) (0.01010101 0.10592908 0.10000000))
);

boundary
(
	frontAndBack
	{
		type empty;
		faces
		(
			(4 5 6 7)
			(0 1 2 3)
		);
	}

	lowerWall
	{
		type wall;
		faces
		(
			(4 5 1 0)
		);
	}

	outlet
	{
		type patch;
		faces
		(
			(5 1 2 6)
		);
	}

	upperWall
	{
		type wall;
		faces
		(
			(7 6 2 3)
		);
	}

	inlet
	{
		type patch;
		faces
		(
			(4 0 3 7)
		);
	}

);

faces
(
);

mergePatchPairs
(
);

scale 1;

// * * * * * * * * * * * * * * * * * * * * * * * * * * * * * * * * * * * * * //
// Created with classy_blocks: https://github.com/damogranlabs/classy_blocks //
// * * * * * * * * * * * * * * * * * * * * * * * * * * * * * * * * * * * * * //
