/*--------------------------------*- C++ -*----------------------------------*\
| =========                 |                                                 |
| \\      /  F ield         | OpenFOAM: The Open Source CFD Toolbox           |
|  \\    /   O peration     | Version:  2506                                  |
|   \\  /    A nd           | Website:  www.openfoam.com                      |
|    \\/     M anipulation  |                                                 |
\*---------------------------------------------------------------------------*/
FoamFile
{
    version     2.0;
    format      ascii;
    arch        "LSB;label=32;scalar=64";
    class       dictionary;
    location    "system";
    object      snappyHexMeshDict;
}
// * * * * * * * * * * * * * * * * * * * * * * * * * * * * * * * * * * * * * //


castellatedMesh true;
snap true;
addLayers false;
mergeTolerance 1e-06;
debug 1;

geometry
{
  fracture.stl
  {
    type triSurfaceMesh;
    regions
    {
      top { name upperWall; }
      bottom { name lowerWall; }
      left { name inlet; }
      right { name outlet; }
      front { name front; }
      back { name back; }
    }
  }
}


castellatedMeshControls {
  locationInMesh (0.00555556 0.0025 0.000329);
  maxLocalCells 1000000;
  maxGlobalCells 1000000;
  minRefinementCells 0;

  nCellsBetweenLevels 1;
  resolveFeatureAngle 30;

  allowFreeStandingZoneFaces false;

  features ();
  refinementSurfaces
  {
    fracture.stl
    {
      level (1 3);
    }
  }
  refinementRegions {}
}

snapControls{
  nSmoothPatch 3;
  tolerance 4.0;

  nSolveIter 3;
  nRelaxIter 3;
  nFeatureSnapIter 3;

  implicitFeatureSnap false;
  explicitFeatureSnap true;
  multiRegionFeatureSnap false;
  }

addLayersControls{}

meshQualityControls {
  maxNonOrtho 65;
  maxBoundarySkewness 20;
  maxInternalSkewness 4;


  minVol 1e-13;
  minTetQuality 1e-13;

  maxConcave 80;

  minArea 0;
  minTwist -1;
  minDeterminant 0.001;
  minFaceWeight 0.05;
  minVolRatio 0.01;
  minTriangleTwist -1;

  nSmoothScale 4;
  errorReduction 0.75;
  }
